14
run_id: 20_1d
C 1.04196775 -1.2070539 -0.3651631
C 1.45820664 0.07229593 0.22763531
C 0.69007808 1.21742821 0.16692083
C -0.7055416 1.24111657 -0.0678176
C -1.4304385 0.04927092 -0.3295481
C -1.0666084 -1.1740343 0.32703865
H 1.48890034 -2.2550224 0.12601973
H 1.08585619 -1.2181514 -1.4188599
H 2.37087700 0.04150867 0.86950996
H 1.01032288 2.16107725 0.60582734
H -1.0192869 2.10231608 -0.5877662
H -2.4130926 -0.0226852 -0.7650583
H -1.7390178 -2.1108910 0.28913170
H -0.6377326 -1.0679592 1.36851366
