	14
 t=	1121.0
C 2.473058184104897 -0.8205229304126408 -0.7760133086715486
C 1.6509645827129502 -0.2007948385935606 0.14815167763093498
C 0.7417180951924 1.0228861106013116 -0.08555321118895234
C -0.7039578037418739 1.002251813895525 0.07621493488605859
C -1.789428147424813 -0.04714315710307531 -0.1579503417372418
C -2.394508454814047 -0.7892658045844037 0.7791984870588037
H 2.9284824000119976 -1.778333403710706 -0.4162289373487272
H 2.6749885812049654 -0.4344873388692524 -1.9154491137777332
H 1.5072811413552591 -0.7619980867256064 1.1130071047844265
H 1.2663676437893834 1.8874911864246675 0.29670918551703557
H -1.206662214609854 1.901883632581542 -0.09754744230487254
H -1.8273730729061697 -0.3470735378481831 -1.1443775924478123
H -2.986832667461577 -1.6420191763840288 0.42942926616271526
H -2.092532442622166 -0.8188701269313053 1.9243139489905225
