	14
 t=	941.0
C 1.9893502982809923 -1.0010502782050674 -0.6712731690999109
C 1.4741741516558104 -0.0888934679257525 0.19999460900993693
C 0.6552659439867394 1.0770875374746944 0.10177737636214208
C -0.6752420043517592 1.0885143733389346 -0.08718808098139912
C -1.539403671597128 -0.07102991373199444 -0.2768440645783004
C -1.889401039414619 -0.9438715419886543 0.6822599548391686
H 2.6121775690393574 -1.77095623205835 -0.3712365689293892
H 1.6622900396038225 -0.7680950510828016 -1.8183886822707596
H 1.901174094332271 -0.22356362545617559 1.1089954697377888
H 1.1093295502543532 2.084099145053792 0.3002573260088819
H -1.024646755140123 2.040664638197587 0.34920283376413697
H -2.2389381683238145 0.10421591913624333 -1.0557363525097487
H -2.7644500439746156 -1.5320267703969976 0.4858969098183334
H -1.432545821147796 -0.657828205498601 1.6114338686404213
