	14
 t=	961.0
C 2.040447300175009 -0.984273623638011 -0.6908151520230926
C 1.4731011991087761 -0.06416363452620776 0.17938714553800178
C 0.6869477134183415 1.0368103087664597 0.06752495168418504
C -0.6975054054146097 1.0456016706952473 -0.06629534947579893
C -1.535766445167808 -0.03898264689779601 -0.2681473924834758
C -1.9440220081462414 -0.9342422216945586 0.7160879403981721
H 2.618144353612952 -1.755063828790575 -0.3433413631030809
H 1.8242047123316858 -0.7381585236588903 -1.7433482210399782
H 1.837415523375868 -0.27404295737328166 1.1988751688455939
H 1.0087610808654308 2.0729772200459555 0.4123640038206041
H -0.9486268738209852 2.0811257101555745 0.3164295044822834
H -2.2875593140200037 0.07201030114642869 -1.1144860333811761
H -2.780006796280702 -1.5144621215008338 0.3898999075917659
H -1.5486582196670562 -0.6677943458524979 1.6248221803394998
