	14
 t=	1241.0
C 2.720307895517123 -0.6733174894588501 -0.7341769053435859
C 1.6955173682581477 -0.34362383800959573 -0.012143472169289828
C 0.7494180095213211 0.9346287041465537 0.00894103330696048
C -0.6874422041626352 1.0176983035573408 0.06388787119061988
C -1.8028952404868601 -0.16376734285800823 -0.04832864162776885
C -2.638009765150541 -0.7162090231608245 0.7816688242617523
H 3.3375666749493176 -1.5057570833828386 -0.7157602913928328
H 3.0177691934669584 0.06748358434897557 -1.7368224734682791
H 1.462509191943699 -0.8896567802153307 0.858052512674018
H 1.030827310762141 1.60773123341665 -0.7979381297486612
H -1.0017605912540288 2.0443872802700875 0.2637827616793635
H -1.981360626024804 -0.31573664840652704 -1.0594165747198863
H -3.4865623522737432 -1.4014279657437987 0.6314434714599058
H -2.818362987225111 -0.2668432897542133 1.8439719202249865
