	14
 t=	1281.0
C 2.782928579804465 -0.5633604571689603 -0.7575808956906297
C 1.6969504798843447 -0.38625900691403703 -0.04831710907917947
C 0.7054424814860807 0.8609443655174778 0.0004518314985488516
C -0.6256109027824205 0.9831771658039398 0.07596546411900387
C -1.8049245455150458 -0.19851569071656514 -0.003445661196972849
C -2.6996686146494713 -0.6198179040353958 0.7948946818073351
H 3.423341183659759 -1.462117302364577 -0.6274499720271879
H 3.0948227996870905 0.07203777901890211 -1.4875685379178123
H 1.2901133642998304 -0.9402918632045412 0.8072847352338283
H 0.9944487626673896 1.4476205795472443 -0.9528603168395613
H -1.0907892999171678 2.044348538985097 0.30814430863653075
H -1.8898403010148825 -0.39117572951338 -1.1419612043618432
H -3.5006867767876426 -1.305827775754111 0.6077732143349961
H -2.9777431801241927 -0.37158963537353323 1.7487132338686437
