	14
 t=	1221.0
C 2.6934195890218287 -0.709105405009059 -0.7462854471978754
C 1.679804777957091 -0.3101061231314546 0.014879836398087213
C 0.7736996286023157 0.9616543105917931 -0.0018693862930997374
C -0.7217877644864 1.0251513682932523 0.06517589609140459
C -1.7936754485516662 -0.13435874142611096 -0.07393258162519263
C -2.616537631281776 -0.7574855373472313 0.7927987012125288
H 3.335059875572839 -1.611824866725513 -0.7198626067770743
H 2.927487139354651 -0.04831990449152734 -1.6995427452206164
H 1.5414833683198064 -0.949222720870296 0.9355283640883442
H 1.0896025017950903 1.7355666889472519 -0.6660511421406632
H -0.9741381514421329 2.0045669358109937 0.21018091705759123
H -1.998071531883425 -0.32508753629088183 -1.0776477177341397
H -3.435771583836546 -1.4556895442635278 0.5707584000011416
H -2.6633981039284595 -0.2520002561924009 1.8420838658694296
