	14
 t=	121.0
C 0.7966740465585512 -1.2066575534176232 -0.14353072080233312
C 1.488835287218491 0.01665092336713615 0.19646996760678814
C 0.6511536797627278 1.2720181936243837 0.12808497582076417
C -0.6893266953983453 1.3722144609051072 -0.09086482463310376
C -1.4124700299709665 0.005290091788022838 -0.22882765963623447
C -0.8455525224335575 -1.2470472483727053 0.1815879260723214
H 1.280821587029869 -2.0475444407952157 0.1849153789311666
H 0.6624119006616741 -1.4366668348597453 -1.2877020282075078
H 2.5054274286065157 0.12244438621697938 0.4572104461473547
H 1.146588852545582 2.2362385606536854 0.1737160627952034
H -1.193233732376716 2.3254501759872914 -0.1894082273651079
H -2.3098398884026934 -0.08180964559056647 -0.8344875791723172
H -1.2914070291391173 -2.0987189445886885 -0.25122996661343533
H -0.6735890412376729 -1.549294110554649 1.235870349468905
