	14
 t=	1461.0
C 2.87529175994886 -0.21617636402681206 -0.6043346967161767
C 1.6775829133224625 -0.5020670010825619 -0.21074066596668545
C 0.6339438659136075 0.5569850946496702 -0.34594804962214976
C -0.6011098394504342 0.6553338513850223 0.23365794503989026
C -1.7472010600209338 -0.23369398825047002 0.1871529656336853
C -2.8480616487377532 -0.26584712790702925 0.7420723380976812
H 3.6665658977818025 -0.911897737956574 -0.6822954864310099
H 3.275912167438377 0.9383897552302505 -0.9650077384529361
H 1.3174371341776592 -1.5005972513462957 -0.058653169128363526
H 1.1903413449588323 1.4260465770810506 0.01156221957501675
H -0.8634361584599833 1.757485550847058 0.02433847221444252
H -1.5971814163306073 -0.9938590994162538 -0.5815246196924072
H -3.7117752159967563 -0.9648441908705931 0.5637716174836269
H -3.164164887726868 0.31428312479388454 1.6655854738941975
