	14
 t=	641.0
C 1.1562374243161038 -1.0955162400795506 -0.40164760518854437
C 1.5003922924708122 0.03166892845476417 0.24291672325834232
C 0.5572977880209025 1.0869210583001672 0.30829151494457246
C -0.5852693938957653 1.1206714017384882 -0.28510673914391266
C -1.4892630316035167 0.08337301541321955 -0.22467774166200605
C -1.1360093293237872 -1.0849958465755685 0.3944161503698064
H 1.7258446421682208 -1.9134476441691934 -0.5527766064455489
H 0.1904279187908201 -1.0745016109551804 -1.0372419063631226
H 2.3846774365789676 0.18243294245300745 0.7209394581430668
H 0.921019288559247 1.9934932835832482 0.7683722688961789
H -0.8522469278049243 2.0278513656079484 -0.8898631035400679
H -2.3505963388731854 0.15293119057483517 -0.8471191743182883
H -1.3966370448582077 -2.0341676886842213 0.09138420434954284
H -0.6628616012339604 -1.0268883715390484 1.3391044968527785
