	14
 t=	601.0
C 1.0792513242461834 -1.1039868363250518 -0.3838354996337062
C 1.4957019469779416 0.06560967863196816 0.2413682129633198
C 0.6377119280605146 1.078016845913197 0.37800397392393975
C -0.6188800637882822 1.1129066547080348 -0.3627495671376112
C -1.5151412981227887 0.12801861502100134 -0.22710693240406882
C -1.0802249904469947 -1.1110476825447932 0.3646655258808544
H 1.7608824620084842 -2.118321647853415 -0.4667220800125853
H 0.2442794611508807 -1.1401783407094725 -0.983055610425136
H 2.506043525331558 0.29962826609614795 0.6873672373894772
H 1.0200630749397783 2.041018724550074 0.6980970366740605
H -1.1458039948902958 1.9993558831213962 -0.6677699990846259
H -2.3999114594246156 0.14664382142182394 -0.8584177047830746
H -1.3794589305219533 -2.1800476588192192 0.0856682344257917
H -0.5873267019299722 -1.0665826518922645 1.3815697708977637
