	14
 t=	1021.0
C 2.1569948327210637 -0.8810367227138652 -0.7051499351628757
C 1.5722055513884936 -0.11201157642943527 0.14324596512954027
C 0.6950536282782037 1.0042885907330892 -0.03328942618382405
C -0.6702292991687681 0.9938950619793488 0.014003299892680891
C -1.63697423634608 -0.017399883852291076 -0.22277173169050526
C -2.0920312053250707 -0.8459336341913792 0.7364274199457747
H 2.694410232563133 -1.7737268060159015 -0.29856941897162936
H 2.3387863682570886 -0.742027924423584 -1.8835768341303853
H 1.5783781183638819 -0.3352803666617688 1.2204716232241017
H 0.9069051314607807 1.7876838681388392 0.6624737811433651
H -1.0512915797853124 1.9915493410790248 0.012911946871824186
H -2.1043703755976058 -0.11825920285045018 -1.158566552862198
H -2.8122540677967516 -1.5911412660432704 0.3625322317747354
H -1.8485230871882943 -0.9072782553731594 1.886365367229657
