	14
 t=	561.0
C 1.0607325923136823 -1.138671892254366 -0.36447016606483684
C 1.5160735852358211 0.062010643442554546 0.23952243767563816
C 0.6840404815330078 1.1215246136512491 0.4213201722239634
C -0.6488752193351717 1.1386239434664862 -0.4045301073711
C -1.5478585389234043 0.10838879500124114 -0.2375740074564651
C -1.0515124705966954 -1.1368479906610278 0.35756749100940566
H 1.6151758699429495 -1.9774767768461399 -0.31314802658344776
H 0.26463783479101816 -1.1963416374027454 -1.1158408638366977
H 2.5625521581095136 0.24716782712917795 0.6269379757417153
H 1.127103764281343 2.0945324314283402 0.6347904495744796
H -1.290879389949121 2.0793807498026604 -0.46381351885896044
H -2.4656568621797343 0.11846674858874885 -0.870974764988223
H -1.4236518780950025 -2.1066836062400127 0.10801599073414901
H -0.5393717417330723 -1.1050093631700861 1.2530272015286745
