	14
 t=	341.0
C 1.046740290095422 -1.2272847951073345 -0.35119750006505124
C 1.3942595619656368 0.05766193501972106 0.24204611729662007
C 0.6781109601501807 1.2024457272028215 0.059757087955854514
C -0.7036537735251761 1.2074960050828671 0.01832127409883227
C -1.3603499405774162 0.07981038518984523 -0.3129356542620212
C -1.0493801219875012 -1.1698282889426275 0.3329372709861555
H 1.4192016341075817 -2.01410973148826 0.0694493164019396
H 1.112200582147794 -1.34215773866095 -1.5142926746775527
H 2.10509258609199 0.29334016943947927 1.025147522745273
H 1.095429244406805 2.1211955799514204 0.4437206569416464
H -1.2404555855667792 2.0809783243313116 -0.440797756055287
H -2.228605735175387 0.21474752798823377 -0.957908380080628
H -1.5559233878439567 -2.042437744879399 0.14355017785583696
H -0.7751885431375971 -1.1012347176721817 1.3628779698954296
