	14
 t=	61.0
C 0.7249435686477678 -1.1923623201951907 -0.15276986787880922
C 1.4763756703557886 0.045320357636507984 0.17927437177982167
C 0.6735510206735456 1.2618282220371497 0.1463491680988804
C -0.699887806683703 1.2923596388806335 -0.10722462909927824
C -1.3993399022750375 0.02625116459475884 -0.20532167385854724
C -0.7990803912493295 -1.246789139724776 0.17393978297719156
H 1.2408688194305424 -2.164996610564363 0.3685338358988721
H 0.7746830577662341 -1.417973421324875 -1.1849169397155601
H 2.584235888457345 0.3153454436358657 0.2951152847723703
H 1.192037907956346 2.1748915331681022 0.42424089247029384
H -1.1951331671032304 2.2268629825060526 -0.47049476474427054
H -2.3529149977188246 0.17891624458502645 -0.6991779962792627
H -1.262918764100255 -2.096956887315351 -0.3771260911127983
H -0.7018474769219109 -1.4380683029166412 1.235972333392642
