	14
 t=	161.0
C 0.866450525175894 -1.209994846069597 -0.17618922766837358
C 1.4413914203210225 0.035559702529564946 0.20282523260234409
C 0.6727557023137565 1.2587426646818367 0.1110227386108201
C -0.7118271692080824 1.3696156701545021 -0.07629961395810572
C -1.4063355054159736 0.030343438231766787 -0.2395530443690684
C -0.8707647266923458 -1.2417059043372456 0.20419645889681778
H 1.37928866716785 -2.1503868941936872 0.1803000251313638
H 0.6190075472312994 -1.3935444954306342 -1.2304626787840969
H 2.5085613655874606 -0.09057515072894601 0.6543309693337829
H 1.1584904149057986 2.223402376692184 0.008077679436040375
H -1.2228257087034005 2.357810865020217 -0.007067987492987048
H -2.2280865255970506 -0.2305174488203528 -0.913132990231102
H -1.3590035137238994 -2.1213859731310656 -0.23167456543539144
H -0.7563103816342905 -1.4830027197231717 1.2299432358392668
