	14
 t=	1301.0
C 2.8159205334657176 -0.512498663245897 -0.7705142853237332
C 1.6787958430906769 -0.39554398815072217 -0.05504534388083854
C 0.7018457892214837 0.818395184332159 -0.02713814677780114
C -0.6176708606932865 0.9641424591974482 0.09311794069489954
C -1.7918203757410176 -0.20220061746370657 0.0009181427859502229
C -2.7420348684776346 -0.5749895205348468 0.8099363595129847
H 3.457629061812459 -1.4449112775075437 -0.5683707205025048
H 3.1477340444765542 0.12910884337440245 -1.4010062421341494
H 1.2489280302708576 -1.048966751163482 0.7842773265985573
H 1.0013069991763361 1.4024994058971818 -0.9197909012622003
H -1.0903466282287977 1.9234811576815036 0.2747143945518283
H -1.8136398060382588 -0.4620315984313969 -1.0905970962657796
H -3.5017052813818617 -1.286904407182395 0.49604878425754917
H -2.9862021591432444 -0.3709380546226463 1.8141273071129895
