	14
 t=	621.0
C 1.1143194828304182 -1.0977549429634803 -0.3895024271425736
C 1.4999373789872656 0.054309171366599844 0.24393452209766103
C 0.5976980102589657 1.0772784845134846 0.34391432326086024
C -0.6000770901571487 1.1126786720610482 -0.325447895048885
C -1.5021171912645654 0.1126485873034285 -0.2257411041313619
C -1.1042923656927008 -1.0998264982478365 0.3753020689738002
H 1.7559263641511573 -2.047070746812663 -0.5180338354797969
H 0.17326423846313366 -1.1039972304753058 -1.025300088540677
H 2.3996864078963416 0.24842144115534437 0.6824436131496217
H 0.9644436884487563 2.008276404193168 0.7367882064942403
H -1.0052609656640608 2.0003436174585905 -0.7868388441878055
H -2.355191033867056 0.1534840944984473 -0.8345014834830539
H -1.3721715676126491 -2.1117125627935542 0.09024832797613311
H -0.6258654310885541 -1.044971843988417 1.3876943535944386
