	14
 t=	141.0
C 0.8341546828137405 -1.2141287268099274 -0.15236103599027218
C 1.4659495416402974 0.023910371089177814 0.19903975902072402
C 0.6603290518381482 1.2680793912847819 0.12083807658377048
C -0.6974461131109804 1.3744029253283567 -0.08416066023446728
C -1.4119298749947051 0.016392539650935702 -0.23569634120776128
C -0.8592750655931253 -1.2481765629951287 0.19073659251822864
H 1.2890504138287153 -2.022478051617653 0.1440074949558845
H 0.6328594650982305 -1.4237988178794188 -1.2861018283535404
H 2.5388225723479234 0.01018278669931719 0.5584720274923931
H 1.13867158032388 2.2234304454280793 0.08337033167866438
H -1.21720585699572 2.3690749264032798 -0.0942300765117459
H -2.264664447818402 -0.17324712777259146 -0.8653129470669114
H -1.303525471723704 -2.0782711673330794 -0.21257162855510867
H -0.7162196700453665 -1.5301802806501517 1.215108907408448
