	14
 t=	1361.0
C 2.8765751488941342 -0.40159117200000116 -0.7468332792171443
C 1.598884748350901 -0.4073686151684223 -0.06002081050510021
C 0.7339999141765924 0.6665144626550863 -0.16233043800522787
C -0.6525525891283752 0.832559327374957 0.1679173718880027
C -1.7214795157656095 -0.16943799949538305 0.028932690575140592
C -2.8683952395071253 -0.46189549196344254 0.8425029401054972
H 3.4895603706602936 -1.2140616540943499 -0.4974730888852484
H 3.363635132115023 0.5355974336653286 -1.4047155939243894
H 1.4129113525989405 -1.3485461060692183 0.41746279102614586
H 1.1975270448847857 1.6013358883693132 -0.6610651596912286
H -1.1189090515254734 1.911727110312379 0.0746139053116682
H -1.6257682860790599 -0.808394258340232 -0.8968815413947683
H -3.4482677670273563 -1.1413972789860594 0.20051422737825483
H -2.878209113360928 -0.23622107136309264 1.9319819812949532
