	14
 t=	661.0
C 1.1953056551321375 -1.0844178380590501 -0.4208515653211072
C 1.4945644384987373 -0.00021477963616891424 0.23955134407885675
C 0.5317339147629754 1.1029489311160159 0.2797367183300838
C -0.58584388149135 1.1388068157267663 -0.2512725836372621
C -1.4792722776877707 0.04586799266126371 -0.22653609473673542
C -1.1770327369823321 -1.06303610415082 0.418795461332032
H 1.78067262587955 -1.870598279349445 -0.5926388926935143
H 0.30798740529662577 -1.0608702120325575 -1.0023274921432253
H 2.4602674816423513 0.11534738134094877 0.8080079829751898
H 0.8973721089351123 2.0017189390544723 0.7731045689863711
H -0.7133537421099447 2.0434677753517088 -0.9364699792231301
H -2.3622099807918335 0.13637570290421613 -0.8941579720144908
H -1.473846921884871 -2.0197155132631304 0.07495218300941849
H -0.6523236018731458 -1.0122166623716622 1.3000448866128866
