	14
 t=	1261.0
C 2.7496148204311783 -0.6233259384224401 -0.7390825077925653
C 1.7024451539321266 -0.37015283219025613 -0.03350741688390413
C 0.7231566852040605 0.8999834059209989 0.012022746710842865
C -0.651857472935392 1.0008672772763547 0.06656258749655067
C -1.8061226041683296 -0.18458066250173158 -0.02172845942002744
C -2.665439832567135 -0.6689709635393171 0.7835824883868229
H 3.366838517279555 -1.4563722427628631 -0.6828791207124557
H 3.0724240155147897 0.09833881919088233 -1.6543742415746727
H 1.3740644502242196 -0.8761383681443667 0.8107496313329471
H 1.002355378884159 1.5193948627449116 -0.9071231577870338
H -1.0527727934953348 2.0840064568550445 0.29985786550818
H -1.9510141111875283 -0.34095012161049876 -1.1131419586898972
H -3.5016728077927675 -1.3460040028390479 0.6523131579708673
H -2.9270167539204 -0.3231747927737775 1.7866477133029084
