	14
 t=	1441.0
C 2.8773550443619014 -0.25168510033003205 -0.6433514074826833
C 1.6435558672974162 -0.47154055220830515 -0.16139227878890586
C 0.6698985934450372 0.5723735871967177 -0.3319002492662541
C -0.6312102630114885 0.686740045888137 0.2321194793567602
C -1.746732554789683 -0.20851425526559822 0.16080185231701202
C -2.8401070981751735 -0.3041560184128448 0.750250200514818
H 3.6404910930586536 -0.9611743450669337 -0.6246035636681152
H 3.328535809333688 0.8613524613686601 -1.0488984883282453
H 1.3871590735679944 -1.4990253483207825 -0.00836634273206173
H 1.21130273981833 1.4219244046693835 -0.06341839859933826
H -0.8572302492369284 1.6572272687501486 -0.015800691385697722
H -1.5998881592270917 -0.9218267830047118 -0.5563802800362245
H -3.699899160220267 -1.0196726502158815 0.45154937273561246
H -3.086183326076149 0.1846752730891423 1.788116941060501
