HF-SCF000/6-311G**  ENERGY=-231.88579148
 OpenBabel07072512413D

 14 14  0  0  0  0  0  0  0  0999 V2000
    0.7291   -1.2392   -0.1156 C   0  0  0  0  0  0  0  0  0  0  0  0
    1.4062    0.0697    0.2170 C   0  0  0  0  0  0  0  0  0  0  0  0
    0.7338    1.2085    0.1716 C   0  0  0  0  0  0  0  0  0  0  0  0
   -0.7008    1.2200   -0.1728 C   0  0  0  0  0  0  0  0  0  0  0  0
   -1.4042    0.0992   -0.1648 C   0  0  0  0  0  0  0  0  0  0  0  0
   -0.7631   -1.2104    0.2300 C   0  0  0  0  0  0  0  0  0  0  0  0
    1.2132   -2.0603    0.4037 H   0  0  0  0  0  0  0  0  0  0  0  0
    0.8557   -1.4298   -1.1824 H   0  0  0  0  0  0  0  0  0  0  0  0
    2.4593    0.0631    0.4420 H   0  0  0  0  0  0  0  0  0  0  0  0
    1.2226    2.1465    0.3705 H   0  0  0  0  0  0  0  0  0  0  0  0
   -1.1636    2.1606   -0.4171 H   0  0  0  0  0  0  0  0  0  0  0  0
   -2.4569    0.1108   -0.3914 H   0  0  0  0  0  0  0  0  0  0  0  0
   -1.2701   -2.0418   -0.2497 H   0  0  0  0  0  0  0  0  0  0  0  0
   -0.8939   -1.3465    1.3047 H   0  0  0  0  0  0  0  0  0  0  0  0
  1  2  1  0  0  0  0
  1  6  1  0  0  0  0
  1  7  1  0  0  0  0
  2  9  1  0  0  0  0
  3  2  2  0  0  0  0
  3 10  1  0  0  0  0
  4  5  2  0  0  0  0
  4  3  1  0  0  0  0
  5  6  1  0  0  0  0
  6 14  1  0  0  0  0
  8  1  1  0  0  0  0
 11  4  1  0  0  0  0
 12  5  1  0  0  0  0
 13  6  1  0  0  0  0
M  END
$$$$
