18
 generated by VMD
 C         1.111300       -0.264500       -1.141500
 C         1.234300        0.348300        0.243000
 H         2.096900       -0.020400        0.810800
 N         0.037300        0.083500        0.987100
 H         1.342200        1.426000        0.164300
 C        -1.173200        0.410600        0.332600
 C        -0.006400       -0.317000        2.382200
 H         0.945400       -0.848100        2.670400
 H        -0.900700       -0.854800        2.495400
 H        -0.101400        0.462300        3.196300
 C        -1.170300       -0.281000       -1.069800
 H        -1.161100       -1.383400       -0.810400
 O        -0.038500        0.066500       -1.773000
 H        -2.063100       -0.021100       -1.683800
 H         1.172900       -1.380700       -0.896600
 H         1.990000        0.120700       -1.617200
 H        -1.224700        1.479000        0.254300
 H        -1.952900        0.039500        0.946600
