18
 generated by VMD
 C         1.168500       -0.268200       -1.070400
 C         1.157300        0.526700        0.290500
 H         2.170000        0.324600        0.789100
 N         0.025200        0.214000        1.057700
 H         1.072300        1.536000        0.009800
 C        -1.194500        0.548000        0.276300
 C        -0.002600       -0.522100        2.304500
 H        -1.013200       -1.082600        2.524200
 H         0.319800        0.130500        3.032900
 H         0.692500       -1.266800        2.192400
 C        -1.157000       -0.298000       -1.043500
 H        -1.337300       -1.341400       -0.841900
 O        -0.001600       -0.103600       -1.758700
 H        -1.925700        0.099800       -1.691100
 H         1.181700       -1.341600       -0.779400
 H         2.050400       -0.092200       -1.723000
 H        -1.061000        1.500000       -0.021700
 H        -2.138200        0.365200        0.703400
