18
 generated by VMD
 C         1.132700       -0.279900       -1.130900
 C         1.255200        0.154700        0.308700
 H         2.003000       -0.442300        0.774700
 N         0.023300        0.124300        0.976900
 H         1.631700        1.211100        0.539800
 C        -1.240500        0.117200        0.314300
 C        -0.012100       -0.154200        2.390500
 H        -0.261200        0.738900        3.017100
 H         0.978800       -0.458000        2.685100
 H        -0.922000       -0.850800        2.483900
 C        -1.140800       -0.244200       -1.138900
 H        -1.290800       -1.262200       -1.416300
 O         0.005900        0.271200       -1.717400
 H        -1.954800        0.343300       -1.533900
 H         1.059300       -1.336000       -1.167200
 H         1.999700        0.050000       -1.701800
 H        -1.560800        1.214000        0.326600
 H        -2.035400       -0.397000        0.815500
