18
 generated by VMD
 C         1.162214       -0.206754       -1.141186
 C         1.191954        0.189116        0.324758
 H         2.068753       -0.241683        0.797435
 N         0.000000       -0.298168        0.997074
 H         1.276250        1.278308        0.402712
 C        -1.191954        0.189116        0.324758
 C        -0.000000        0.021959        2.406693
 H        -0.000000        1.099455        2.596939
 H         0.876093       -0.403408        2.882121
 H        -0.876093       -0.403408        2.882121
 C        -1.162214       -0.206754       -1.141186
 H        -1.223615       -1.290163       -1.230229
 O         0.000000        0.255781       -1.766161
 H        -1.998955        0.228227       -1.671574
 H         1.223615       -1.290163       -1.230229
 H         1.998955        0.228227       -1.671574
 H        -1.276250        1.278308        0.402712
 H        -2.068753       -0.241683        0.797435
