18
 generated by VMD
 C         1.187400       -0.273500       -0.969500
 C         1.166800        0.579400        0.303000
 H         2.026900        0.393200        0.979500
 N        -0.034700        0.222200        1.013800
 H         1.026700        1.589300       -0.084900
 C        -1.211000        0.551100        0.277300
 C        -0.008300       -0.560900        2.186200
 H         1.134300       -0.902700        2.428200
 H        -0.517200       -1.451600        2.022300
 H        -0.439400       -0.147700        3.069700
 C        -1.133600       -0.301600       -1.046800
 H        -1.484800       -1.357100       -0.981700
 O         0.022400       -0.138600       -1.735500
 H        -1.860000        0.165800       -1.592100
 H         1.405400       -1.298800       -0.674200
 H         2.032900        0.148500       -1.566700
 H        -1.102400        1.680200        0.088600
 H        -2.112000        0.359000        0.832200
