18
 generated by VMD
 C         1.182400       -0.245500       -1.012600
 C         1.205100        0.559000        0.286600
 H         2.158300        0.445100        0.841000
 N        -0.012900        0.221700        1.007200
 H         1.119200        1.655300        0.057500
 C        -1.181700        0.594800        0.280800
 C         0.018900       -0.623600        2.169300
 H         1.021900       -0.674000        2.412800
 H        -0.454600       -1.511600        1.924300
 H        -0.718600       -0.128200        2.985600
 C        -1.196000       -0.254300       -0.997000
 H        -1.446100       -1.258800       -0.796700
 O        -0.014700       -0.194400       -1.694900
 H        -1.997100        0.027800       -1.581000
 H         1.496200       -1.298600       -0.913300
 H         2.018400        0.195000       -1.591600
 H        -1.021800        1.671100        0.041700
 H        -2.105300        0.519400        0.864500
