18
 generated by VMD
 C         1.168500       -0.195000       -1.133900
 C         1.209100        0.235700        0.311900
 H         2.067900       -0.219300        0.774700
 N        -0.003800       -0.220900        0.973900
 H         1.133400        1.280200        0.495200
 C        -1.238000        0.234500        0.296600
 C         0.013000       -0.078700        2.416100
 H         0.248700        0.994700        2.523700
 H         0.807500       -0.572800        2.881300
 H        -0.966300       -0.303500        2.827200
 C        -1.158800       -0.212500       -1.114600
 H        -1.240700       -1.308200       -1.213600
 O        -0.001600        0.194900       -1.755800
 H        -2.010600        0.176200       -1.620800
 H         1.243100       -1.268300       -1.222100
 H         2.051200        0.159500       -1.662800
 H        -1.091000        1.326600        0.422400
 H        -2.091300       -0.096700        0.884000
