14
 generated by VMD
 C         1.869658       -1.030756       -0.639421
 C         1.672561       -0.006964        0.221113
 C         0.673228        1.092908        0.170205
 C        -0.653691        1.054975       -0.103745
 C        -1.643741       -0.025607       -0.307416
 C        -1.893281       -0.947068        0.668927
 H         2.504812       -1.701983       -0.424307
 H         1.237970       -1.230449       -1.482320
 H         2.393364        0.128661        1.059972
 H         1.125749        2.040806        0.252396
 H        -1.195122        1.857820       -0.479706
 H        -2.139227        0.060735       -1.154928
 H        -2.731517       -1.684263        0.476690
 H        -1.490476       -1.108296        1.637195
