14
 generated by VMD
 C         1.583901       -1.146687       -0.514938
 C         1.521090       -0.000281        0.244271
 C         0.703880        1.166265        0.070151
 C        -0.745659        1.203309       -0.037092
 C        -1.480184       -0.028289       -0.323961
 C        -1.617132       -1.047859        0.560029
 H         2.282202       -1.775709       -0.326559
 H         1.061093       -1.243221       -1.448395
 H         2.303476       -0.011542        1.040453
 H         1.232652        2.069364        0.219798
 H        -1.056629        2.197092       -0.150664
 H        -2.183471       -0.056988       -1.033610
 H        -2.256177       -1.933281        0.299032
 H        -0.977008       -0.989485        1.418306
