14
target
C 1.19276 -1.231407 -0.367165
C 1.409634 0.070284 0.269055
C 0.704729 1.179833 0.062934
C -0.726519 1.206183 -0.062432
C -1.479117 0.11569 -0.235099
C -1.135023 -1.150916 0.354457
H 1.817866 -2.11118 -0.043602
H 1.00336 -1.106098 -1.448929
H 2.357837 0.099713 0.859885
H 1.134459 2.204963 0.231383
H -1.060685 2.160384 -0.35319
H -2.226305 -0.118655 -1.005638
H -1.578853 -2.251355 -0.03489
H -1.048305 -1.136104 1.535917
