14
 generated by VMD
 C         1.484254       -1.005661       -0.451219
 C         1.584385        0.120290        0.219595
 C         0.570515        1.041809        0.173945
 C        -0.655378        0.952022       -0.444013
 C        -1.576686        0.020772       -0.205399
 C        -1.446179       -0.993526        0.705453
 H         2.371028       -1.675887       -0.433387
 H         0.688029       -1.055493       -1.062505
 H         2.526446        0.366368        0.603673
 H         0.851515        1.963597        0.924757
 H        -0.775112        1.617408       -1.121008
 H        -2.533756        0.124733       -0.937111
 H        -2.260505       -1.646023        1.092838
 H        -0.402298       -1.310629        0.952024
