14
 generated by VMD
 C         1.342529       -1.077620       -0.549467
 C         1.486357        0.071775        0.240494
 C         0.573342        1.075570        0.298174
 C        -0.591578        1.049081       -0.383450
 C        -1.558582        0.017161       -0.232908
 C        -1.321462       -0.974830        0.601874
 H         2.150510       -1.820431       -0.152458
 H         0.763196       -1.065403       -1.367647
 H         2.467271        0.288057        0.653743
 H         0.851292        1.800694        0.876967
 H        -0.692351        2.033285       -1.006994
 H        -2.364728       -0.201490       -0.895458
 H        -1.603454       -2.008714        0.673886
 H        -0.745537       -0.944749        1.518799
