14
 generated by VMD
 C         1.464354       -0.984078       -0.508505
 C         1.599958        0.146636        0.261584
 C         0.553768        1.002174        0.206346
 C        -0.612414        0.962566       -0.452759
 C        -1.625819        0.017244       -0.217697
 C        -1.423525       -0.981600        0.719266
 H         2.337145       -1.733294       -0.476987
 H         0.594784       -0.986424       -1.220842
 H         2.561516        0.403690        0.714174
 H         0.840214        1.700294        0.886574
 H        -0.630095        1.620358       -1.567820
 H        -2.445026        0.118830       -0.848110
 H        -2.154060       -1.736531        1.045890
 H        -0.584476       -1.327156        1.368847
