14
 generated by VMD
 C         1.492338       -1.068388       -0.637766
 C         1.537707        0.014703        0.238906
 C         0.576477        1.120646        0.372500
 C        -0.714515        1.110857       -0.430290
 C        -1.483011       -0.020106       -0.337241
 C        -1.399152       -1.003224        0.814477
 H         1.985944       -2.067456       -0.701436
 H         0.803804       -1.108445       -1.444921
 H         2.308798        0.018912        1.121381
 H         0.928028        2.034176        0.713654
 H        -1.092054        1.810106       -1.106089
 H        -2.060566       -0.152670       -1.150640
 H        -2.140461       -1.769233        0.630931
 H        -0.850787       -0.604956        1.691800
