14
 generated by VMD
 C         1.158731       -1.178658       -0.295206
 C         1.434361        0.041335        0.261609
 C         0.629577        1.211847        0.130941
 C        -0.699397        1.264404       -0.180280
 C        -1.475538        0.034938       -0.256705
 C        -1.080181       -1.182651        0.356751
 H         1.562326       -2.186544       -0.065781
 H         0.555927       -1.261184       -1.181611
 H         2.549980        0.214372        0.524327
 H         1.281362        2.130403        0.276010
 H        -1.085690        2.181670       -0.402461
 H        -2.311229       -0.099409       -0.769678
 H        -1.653810       -2.167414        0.103622
 H        -0.512602       -1.088748        1.311633
