14
 generated by VMD
 C         0.796721       -1.204163       -0.170877
 C         1.414468        0.012410        0.202089
 C         0.665028        1.333398        0.081342
 C        -0.650910        1.309957       -0.111300
 C        -1.430527       -0.020473       -0.218620
 C        -0.803879       -1.220522        0.176780
 H         1.296865       -1.982014        0.454942
 H         0.801050       -1.321800       -1.204313
 H         2.434931        0.041233        0.516437
 H         1.185982        2.124016        0.295244
 H        -1.114237        2.113167       -0.117192
 H        -2.414791        0.228374       -0.534059
 H        -1.378309       -2.185559       -0.173160
 H        -0.703208       -1.525165        1.245146
