14
 generated by VMD
 C         1.522467       -1.068165       -0.645493
 C         1.553043       -0.009318        0.247942
 C         0.539724        1.146055        0.354193
 C        -0.718633        1.109237       -0.408533
 C        -1.440871       -0.061692       -0.335211
 C        -1.421724       -0.965912        0.799501
 H         2.086367       -1.928587       -0.729751
 H         0.729813       -1.027521       -1.499522
 H         2.285340       -0.230006        1.055175
 H         1.022264        2.208817        0.756081
 H        -1.089709        1.828747       -1.179616
 H        -2.231794       -0.225566       -1.187374
 H        -2.239920       -1.717574        0.902171
 H        -0.967344       -0.696885        1.734986
