14
 generated by VMD
 C         1.305635       -1.085947       -0.464012
 C         1.498963        0.083449        0.221151
 C         0.579410        1.093498        0.294703
 C        -0.611804        1.014965       -0.368093
 C        -1.566040        0.065119       -0.244093
 C        -1.252924       -1.022001        0.566623
 H         2.063506       -1.775326       -0.272841
 H         0.697385       -1.202116       -1.465080
 H         2.510217        0.107379        0.553275
 H         0.863341        1.997117        1.041554
 H        -0.700129        2.076624       -1.068283
 H        -2.571834       -0.061000       -0.844471
 H        -1.665541       -2.023238        0.555301
 H        -0.640259       -0.894651        1.425561
