14
 generated by VMD
 C         1.515469       -1.056526       -0.659343
 C         1.553111       -0.017257        0.260131
 C         0.532363        1.161621        0.341312
 C        -0.703279        1.099465       -0.388163
 C        -1.428866       -0.093917       -0.324373
 C        -1.438131       -0.940033        0.778202
 H         2.240222       -1.948171       -0.698076
 H         0.777257       -0.970922       -1.441703
 H         2.242026       -0.288575        0.965648
 H         0.994494        2.131981        0.727180
 H        -1.100956        1.948250       -1.276478
 H        -2.276037       -0.274099       -1.138795
 H        -2.237832       -1.676251        1.028093
 H        -1.004403       -0.748272        1.741444
