14
 generated by VMD
 C         1.322922       -1.079607       -0.508071
 C         1.495256        0.078192        0.233892
 C         0.570888        1.084671        0.292227
 C        -0.595809        1.023623       -0.369760
 C        -1.558644        0.041195       -0.233683
 C        -1.289931       -0.993966        0.580890
 H         2.128961       -1.797205       -0.186559
 H         0.727926       -1.125911       -1.424593
 H         2.451319        0.187913        0.567728
 H         0.858956        1.876654        0.962851
 H        -0.681379        2.126703       -1.076150
 H        -2.506557       -0.154145       -0.882340
 H        -1.604482       -2.008018        0.636135
 H        -0.716165       -0.941025        1.456354
