14
 generated by VMD
 C         1.449138       -1.072834       -0.623497
 C         1.514011        0.046980        0.251310
 C         0.603324        1.068884        0.355678
 C        -0.669251        1.087213       -0.417733
 C        -1.512494        0.001747       -0.292110
 C        -1.376416       -1.003101        0.775618
 H         2.010525       -2.074898       -0.519809
 H         0.771669       -1.086226       -1.461301
 H         2.234811        0.280321        0.932902
 H         0.905791        2.033012        0.812205
 H        -1.092967        2.049959       -1.227380
 H        -2.150039       -0.199015       -1.256956
 H        -1.976520       -1.879386        0.532651
 H        -0.802315       -0.658523        1.600876
