14
 generated by VMD
 C         1.279878       -1.093671       -0.429882
 C         1.504982        0.088067        0.206997
 C         0.596805        1.109337        0.307977
 C        -0.632845        1.026804       -0.377157
 C        -1.581953        0.079643       -0.258455
 C        -1.214761       -1.053949        0.554184
 H         2.027073       -1.813972       -0.364138
 H         0.707232       -1.268022       -1.411133
 H         2.583465        0.056868        0.593115
 H         0.841839        2.053065        1.029351
 H        -0.746955        1.908472       -0.981827
 H        -2.543773        0.066669       -0.776971
 H        -1.756619       -2.025329        0.459092
 H        -0.542088       -0.838069        1.408665
