14
 generated by VMD
 C         1.482164       -0.930169       -0.652531
 C         1.447819        0.023899        0.288562
 C         0.612539        1.058562        0.260504
 C        -0.563570        0.950709       -0.445864
 C        -1.505122       -0.078253       -0.309323
 C        -1.508785       -0.907352        0.867576
 H         2.252936       -1.579489       -0.691126
 H         0.923995       -1.065091       -1.642374
 H         2.325098        0.259642        0.966119
 H         0.899214        2.022437        0.943275
 H        -0.922758        1.703915       -0.911060
 H        -2.168818       -0.111766       -1.253842
 H        -2.177127       -1.772030        0.886320
 H        -0.716427       -0.855540        1.596227
