14
 generated by VMD
 C         1.500736       -1.012763       -0.684644
 C         1.462785       -0.004587        0.285642
 C         0.589468        1.105795        0.278775
 C        -0.642422        1.057910       -0.379733
 C        -1.426057       -0.154591       -0.306238
 C        -1.502722       -0.887432        0.790932
 H         2.344013       -1.573448       -0.580741
 H         0.820178       -0.940310       -1.620961
 H         2.336311       -0.017654        1.019093
 H         0.949295        2.153749        0.845710
 H        -0.855380        1.843259       -0.973254
 H        -2.321677       -0.404231       -1.006855
 H        -2.295670       -1.622954        0.950874
 H        -0.760300       -0.680766        1.547702
