14
 generated by VMD
 C         0.946354       -1.248916       -0.196424
 C         1.434371        0.082502        0.146064
 C         0.679571        1.286466       -0.009291
 C        -0.714411        1.237734        0.014855
 C        -1.390086        0.071620       -0.215266
 C        -0.948653       -1.197783        0.237370
 H         1.468763       -2.184261        0.227658
 H         0.737734       -1.551526       -1.227335
 H         1.849525        0.055050        1.209760
 H         1.309145        2.268971        0.023708
 H        -1.314616        2.281861       -0.078857
 H        -2.008583       -0.128811       -0.986537
 H        -1.307919       -2.151864       -0.248904
 H        -0.819226       -1.347410        1.350478
