14
 generated by VMD
 C         1.514880       -1.072361       -0.638576
 C         1.546245        0.001379        0.239091
 C         0.556031        1.132577        0.365644
 C        -0.725118        1.118048       -0.428159
 C        -1.461782       -0.036917       -0.342268
 C        -1.409508       -0.988657        0.813167
 H         1.991847       -1.959936       -0.734145
 H         0.744171       -1.080125       -1.499483
 H         2.323899       -0.121730        1.130384
 H         0.992892        2.166086        0.746085
 H        -1.059318        1.721700       -1.062365
 H        -2.130307       -0.177201       -1.165301
 H        -2.204665       -1.743584        0.756031
 H        -0.905639       -0.639794        1.722618
