14
 generated by VMD
 C         1.479010       -0.984428       -0.687949
 C         1.444011        0.005055        0.294307
 C         0.620173        1.083808        0.273023
 C        -0.624463        1.017499       -0.375418
 C        -1.432319       -0.139232       -0.315839
 C        -1.509757       -0.893694        0.825930
 H         2.434458       -1.597295       -0.592455
 H         0.912649       -0.991900       -1.601293
 H         2.238657        0.136288        0.961227
 H         0.918153        2.077137        0.840681
 H        -0.885184        2.000003       -1.053843
 H        -2.329516       -0.386072       -1.065071
 H        -2.330827       -1.649691        0.860723
 H        -0.680521       -0.648374        1.482476
