14
 generated by VMD
 C         1.142071       -1.160348       -0.287553
 C         1.414386        0.019864        0.262827
 C         0.642689        1.219643        0.094275
 C        -0.693737        1.289421       -0.148776
 C        -1.467535        0.019628       -0.254721
 C        -1.054252       -1.195047        0.367109
 H         1.525260       -2.191278        0.004561
 H         0.715244       -1.307460       -1.206580
 H         2.482011        0.194017        0.477675
 H         1.150937        2.053134        0.245104
 H        -1.093696        2.111661       -0.335028
 H        -2.345211        0.022632       -0.886181
 H        -1.631518       -2.106748       -0.027471
 H        -0.608095       -1.075997        1.332875
