14
 generated by VMD
 C         1.464090       -0.938643       -0.672305
 C         1.419565        0.018022        0.293305
 C         0.651541        1.061952        0.269315
 C        -0.589979        0.968312       -0.398050
 C        -1.473347       -0.107620       -0.336231
 C        -1.517196       -0.909608        0.875884
 H         2.393016       -1.590793       -0.660834
 H         1.006814       -1.083708       -1.628584
 H         2.233792        0.344670        0.966732
 H         0.858300        1.859169        0.789907
 H        -0.911197        1.966777       -1.017523
 H        -2.145805       -0.239759       -1.078798
 H        -2.263318       -1.663845        0.781907
 H        -0.632011       -0.693003        1.466931
