14
 generated by VMD
 C         1.159051       -1.236061       -0.347742
 C         1.543386        0.100522        0.214139
 C         0.656959        1.212817        0.297531
 C        -0.723524        1.178474       -0.313784
 C        -1.524870        0.048267       -0.245883
 C        -1.123952       -1.120324        0.365042
 H         1.927866       -2.104167       -0.266582
 H         0.365674       -1.151493       -0.925767
 H         2.435700        0.256744        0.831494
 H         1.096241        2.099338        0.374313
 H        -1.101711        2.016059       -0.641199
 H        -2.508297       -0.038859       -0.670599
 H        -1.655429       -2.087583        0.509504
 H        -0.405944       -1.177369        1.154122
