14
 generated by VMD
 C         1.432287       -1.081817       -0.606793
 C         1.495310        0.057628        0.250403
 C         0.602512        1.045919        0.335858
 C        -0.643510        1.087615       -0.415599
 C        -1.528416        0.001960       -0.268642
 C        -1.366980       -0.990265        0.733158
 H         1.999768       -1.940588       -0.406883
 H         0.703288       -1.054812       -1.510201
 H         2.313880        0.370751        0.886895
 H         0.926908        2.083653        0.893981
 H        -0.990921        2.005411       -1.137874
 H        -2.191410       -0.223898       -1.213311
 H        -1.873707       -1.949317        0.559524
 H        -0.783153       -0.732496        1.589678
