14
 generated by VMD
 C         1.167444       -1.234920       -0.318202
 C         1.490500        0.100020        0.248823
 C         0.647194        1.202855        0.221832
 C        -0.727491        1.183414       -0.248257
 C        -1.472969        0.076448       -0.249048
 C        -1.112190       -1.162857        0.349005
 H         1.712584       -2.116371       -0.170339
 H         0.313746       -1.144382       -1.126476
 H         2.472261        0.241973        0.638486
 H         1.326109        2.155462        0.327188
 H        -1.166350        2.389180       -0.593675
 H        -2.524880       -0.227328       -0.718793
 H        -1.577161       -2.099283        0.389394
 H        -0.466944       -1.163491        1.204553
