14
 generated by VMD
 C         0.719743       -1.195186       -0.176691
 C         1.380078        0.081070        0.238093
 C         0.745696        1.289470        0.151655
 C        -0.684979        1.200141       -0.182510
 C        -1.425766        0.075505       -0.202028
 C        -0.782960       -1.206398        0.181650
 H         1.380426       -2.099016        0.232242
 H         0.967110       -1.397905       -1.218022
 H         2.467770       -0.051939        0.165171
 H         1.243459        2.179206        0.360242
 H        -1.218628        2.184794       -0.204699
 H        -2.373763       -0.068922       -0.380163
 H        -1.163219       -2.167642       -0.337504
 H        -0.729489       -1.491129        1.261427
