14
 generated by VMD
 C         0.774434       -1.206858       -0.165788
 C         1.412214        0.020044        0.219503
 C         0.659578        1.327109        0.093189
 C        -0.641793        1.276485       -0.132817
 C        -1.417030       -0.011684       -0.211288
 C        -0.806228       -1.207150        0.174018
 H         1.301814       -1.915202        0.375760
 H         0.889900       -1.340699       -1.290342
 H         2.469267       -0.009618        0.387103
 H         1.298280        2.199396        0.352647
 H        -1.187188        2.248772       -0.117255
 H        -2.571503        0.197755       -0.520723
 H        -1.265536       -2.153070       -0.130239
 H        -0.710958       -1.584350        1.218862
