14
 generated by VMD
 C         0.845822       -1.213798       -0.155017
 C         1.401292        0.035723        0.162588
 C         0.697446        1.298839        0.055593
 C        -0.670899        1.295377       -0.066249
 C        -1.425389        0.003253       -0.223325
 C        -0.816785       -1.266611        0.187189
 H         1.258612       -2.094737        0.438468
 H         0.638181       -1.377729       -1.245464
 H         2.350940        0.121544        0.806073
 H         1.191681        2.359241        0.257713
 H        -1.306528        2.387914       -0.138464
 H        -2.375834        0.203292       -0.694676
 H        -1.441340       -2.065623       -0.252612
 H        -0.690702       -1.353173        1.295759
