14
 generated by VMD
 C         1.524755       -1.080554       -0.428974
 C         1.607222        0.126617        0.180304
 C         0.619083        1.147580        0.240273
 C        -0.668670        0.973816       -0.468590
 C        -1.609163       -0.014842       -0.209213
 C        -1.449933       -1.037378        0.702213
 H         2.280204       -1.767273       -0.478242
 H         0.614995       -1.451314       -1.105509
 H         2.544566        0.388964        0.817980
 H         0.663005        2.085824        0.587612
 H        -1.099435        1.989362       -1.111678
 H        -2.495422        0.077775       -0.625969
 H        -2.344741       -1.514664        0.933421
 H        -0.440601       -1.180900        0.791508
