14
 generated by VMD
 C         1.484942       -0.935849       -0.654767
 C         1.481863        0.029444        0.289336
 C         0.586659        1.080209        0.272580
 C        -0.554010        0.928155       -0.459869
 C        -1.518933       -0.062998       -0.290681
 C        -1.501530       -0.906407        0.845948
 H         2.322792       -1.683741       -0.681609
 H         0.872120       -1.002881       -1.532472
 H         2.324778        0.121324        0.918881
 H         0.867504        2.010199        0.935308
 H        -1.015831        1.804340       -1.049497
 H        -2.202220       -0.079321       -1.268120
 H        -2.143928       -1.824705        0.968145
 H        -0.775140       -0.923614        1.678821
