14
 generated by VMD
 C         0.717265       -1.191669       -0.177273
 C         1.377021        0.089560        0.233750
 C         0.767682        1.276174        0.170096
 C        -0.694918        1.207571       -0.189508
 C        -1.423394        0.090288       -0.194331
 C        -0.765573       -1.217951        0.182306
 H         1.319905       -2.113333        0.193413
 H         0.907541       -1.395397       -1.167345
 H         2.411655       -0.009746        0.151399
 H         1.154085        2.161359        0.328299
 H        -1.155730        2.009666       -0.264202
 H        -2.410983       -0.134452       -0.381104
 H        -1.206420       -2.140790       -0.431490
 H        -0.759175       -1.401430        1.272681
