14
 generated by VMD
 C         1.507916       -1.045566       -0.673060
 C         1.539224       -0.021612        0.266188
 C         0.536006        1.172427        0.329128
 C        -0.686385        1.093248       -0.376364
 C        -1.427743       -0.125257       -0.317237
 C        -1.457669       -0.916655        0.759928
 H         2.349710       -1.907157       -0.651900
 H         0.825751       -0.930174       -1.402568
 H         2.272650       -0.303356        0.957824
 H         0.931872        2.008443        0.687706
 H        -1.061649        1.975916       -1.266288
 H        -2.241888       -0.310570       -1.022373
 H        -2.216595       -1.624713        1.096696
 H        -0.995050       -0.772932        1.736629
