14
 generated by VMD
 C         1.505587       -0.977354       -0.663393
 C         1.549462        0.061622        0.288565
 C         0.560079        1.124098        0.319245
 C        -0.572607        0.908401       -0.518770
 C        -1.542967       -0.034467       -0.257493
 C        -1.492607       -0.928558        0.803214
 H         2.322072       -1.767617       -0.643468
 H         0.671318       -0.859078       -1.355495
 H         2.419167       -0.152243        0.945191
 H         0.742749        1.920635        0.872511
 H        -1.034540        1.835685       -1.226376
 H        -2.230536       -0.077627       -1.001545
 H        -2.071303       -1.796842        1.030692
 H        -0.901723       -0.933601        1.719190
