14
 generated by VMD
 C         1.508691       -1.039974       -0.680276
 C         1.514031       -0.018327        0.270557
 C         0.546373        1.162189        0.311701
 C        -0.671154        1.091636       -0.375538
 C        -1.430914       -0.150974       -0.310943
 C        -1.477307       -0.898211        0.752214
 H         2.363055       -1.781986       -0.610406
 H         0.809873       -0.905529       -1.466042
 H         2.351110       -0.265942        1.011657
 H         0.916853        2.009272        0.713789
 H        -0.974076        1.897245       -1.143052
 H        -2.197146       -0.341684       -0.919565
 H        -2.208917       -1.589706        1.095422
 H        -0.938437       -0.764201        1.702395
