14
 generated by VMD
 C         1.480612       -0.996389       -0.484171
 C         1.582248        0.144401        0.250669
 C         0.553910        1.009360        0.185367
 C        -0.624249        0.953639       -0.437173
 C        -1.614691        0.026907       -0.222682
 C        -1.428900       -0.986315        0.717236
 H         2.290133       -1.627706       -0.442067
 H         0.555124       -0.965808       -1.214570
 H         2.628656        0.401290        0.667500
 H         0.864619        1.693625        0.876357
 H        -0.658845        1.620995       -1.454728
 H        -2.375281        0.124252       -0.844906
 H        -2.111603       -1.687115        1.082862
 H        -0.584795       -1.364746        1.219254
