14
 generated by VMD
 C         1.209774       -1.176272       -0.350896
 C         1.573637        0.074012        0.183633
 C         0.633456        1.176111        0.346133
 C        -0.656981        1.110332       -0.349627
 C        -1.594181        0.018651       -0.251896
 C        -1.129028       -1.107688        0.455647
 H         1.937627       -1.912489       -0.452493
 H         0.359027       -1.319721       -1.165738
 H         2.412915        0.158927        0.838314
 H         0.906209        2.317511        0.606306
 H        -1.264858        2.109672       -1.014435
 H        -2.598318        0.376022       -0.754556
 H        -1.818430       -1.901103        0.377600
 H        -0.370968       -0.961811        1.171934
