14
 generated by VMD
 C         1.518796       -1.006636       -0.656893
 C         1.612355        0.083903        0.279210
 C         0.556907        1.119017        0.351588
 C        -0.607829        0.937578       -0.585281
 C        -1.551838       -0.020671       -0.210082
 C        -1.478371       -0.961645        0.773016
 H         2.178594       -1.778048       -0.659447
 H         0.564794       -0.859253       -1.252608
 H         2.439600       -0.204065        1.017343
 H         0.656807        2.144192        0.987063
 H        -0.841499        1.589161       -1.233038
 H        -2.511696       -0.158557       -0.837675
 H        -2.179209       -1.786572        0.901677
 H        -0.903039       -0.751406        1.653254
