	14
 t=	1381.0
C 0.829556965620799 -1.3679386572082641 0.06496958231594185
C 1.473074213186243 0.21951696912246613 0.06856222139347548
C 0.5784672413139338 1.3561434118905789 0.12162865716250339
C -0.6855323826811703 1.2488469198816605 -0.24020256743762147
C -1.4009659386738749 0.05935999569920938 -0.014717042865884301
C -0.8160601242482405 -1.3182170617845885 0.05124888906560813
H 1.2229388586585044 -1.6649661478416333 0.9712959865109477
H 1.2247514989015749 -1.8484607629058354 -0.8789673767668016
H 2.616878616972082 0.225244315991769 0.02185422253360395
H 1.253696887066073 2.198093286616999 0.09414205619895874
H -1.1334430022559536 2.203880810625524 -0.6120055672109701
H -2.537489546195721 0.29736384654692904 -0.2065553712230441
H -1.0917184713742099 -1.8777091063527978 -0.9344548367223268
H -1.300102653061047 -1.887631921872606 0.9315495705554976
