	14
 t=	1281.0
C 0.9568379059626757 -1.2587541682403462 0.049312776341831906
C 1.414741641837145 0.15974893052276026 0.11947400314436099
C 0.7649093753897281 1.3307098184893367 0.0960479366301234
C -0.7207375277959569 1.2350926358719698 -0.21838383202844583
C -1.4316058069510504 0.07872678607674892 -0.1898370970719922
C -0.9269403877712716 -1.3474216566576849 0.07504832405644743
H 1.2126350316613899 -1.9659201709327814 0.755762845073303
H 1.3109196962452487 -1.8440747585396724 -0.8438620663615017
H 2.517749380652777 0.4927254687043993 -0.0076006207149144625
H 0.9904359849077563 2.340015602394137 0.38656572911904874
H -1.4450106340483595 2.1099270847434 -0.25997258547068436
H -2.5238655101035072 0.13226571460476952 0.2252333731726221
H -1.5714469639611341 -2.0981778791675474 -0.5457263970271178
H -1.1725581604479114 -1.525599554090469 1.1032254397166321
