	14
 t=	1141.0
C 0.6800907071570078 -1.236472428068291 -0.046598144779374885
C 1.5057541944314239 0.14177085028445266 0.19762352379223647
C 0.6246438463657413 1.2406377831148825 0.025164871765735737
C -0.6926438575476649 1.2478972306449192 -0.0804277206602967
C -1.4950791303665443 0.014194914564530824 -0.32232777747042324
C -0.6616404221428762 -1.2078822390905304 0.1392292880979571
H 1.1729541820378915 -1.7531503473565848 0.8261152928720747
H 1.0084526468413317 -1.4674346951159976 -1.0738830397492025
H 2.479435162261233 -0.1556462387996311 0.3893242553026335
H 1.3371011672980389 2.1688158600117595 0.13730922459450254
H -1.1784631653997812 2.143751270041322 0.016084712988484275
H -2.5661110127830344 0.09940490553697773 -0.3095849044630545
H -0.9178182433307858 -2.1410492782230808 -0.30608794122668687
H -0.8726854550147689 -1.2778647325218666 1.3605548841071216
