	14
 t=	1001.0
C 0.9002612180316552 -1.232688426662721 -0.16119188452482633
C 1.4487402624907055 0.0013155863186325467 0.20047977686273966
C 0.6597788051304234 1.29063719617097 0.05986751850473803
C -0.7473805519729777 1.2155203107580503 -0.04897747438237855
C -1.3929354835289673 0.0018652083572768506 -0.30046802247910004
C -0.8536067991074353 -1.1128334163795115 0.27927635700506304
H 1.3280718454398857 -2.174483161388003 0.13939153002228558
H 0.8672279280679185 -1.3676301049152704 -1.232018178495326
H 2.3497824869715638 0.33924849019782766 0.6604748162482944
H 1.0755191244855629 2.2143941806846485 -0.09174726888798383
H -1.2895280831389808 2.2310514373990715 -0.22102565917286152
H -2.1852219504267385 -0.03279727920540403 -1.0470597004140363
H -1.4211520321889899 -2.0124827312863784 0.014208430712668524
H -0.9016130983123061 -1.1479031382503555 1.4325796577326875
