	14
 t=	801.0
C 0.8605757436178766 -1.183041954821761 -0.31007944614906074
C 1.3658347307400776 0.0022261338357449072 0.1921448149152343
C 0.7323808172952893 1.3073861408608156 0.2670774331857228
C -0.7224328800734915 1.2501993898032076 -0.2834905110661001
C -1.3930775752524143 0.05831898263552003 -0.30529203701427
C -0.8402399485617629 -1.2221466605855569 0.4144245431369799
H 1.4486218453046722 -2.057639118885555 -0.026127275169460357
H 0.5804697272273529 -1.524139101368767 -1.233151384548964
H 2.301467284086782 0.24956255649302728 0.6219270136221786
H 1.117971354712296 2.121304410648051 0.7208025543392945
H -1.1849052659429586 2.225254507952239 -0.7101762160489924
H -2.2434488144831093 -0.13205701886559934 -0.9281819715626274
H -1.4746730764887337 -2.121088064085232 0.23184034912928433
H -0.5817190400462675 -1.2967302577169213 1.6232382179637344
