	14
 t=	881.0
C 0.9283730120189813 -1.3240352510819553 -0.28846153074355846
C 1.4204440759402666 0.1490469106021293 0.22889569577133181
C 0.6997036548633583 1.2382843841971274 0.14020462561188934
C -0.7702194820461576 1.3273638201850049 -0.18317162598011902
C -1.3747984319014395 0.07317594146665822 -0.29773585311313555
C -0.9451515087438014 -1.2732769928973289 0.42979456362134716
H 1.586366872114153 -2.071619527258759 0.0141464851109242
H 0.7983965750733967 -1.253358810559199 -1.3918964839248562
H 2.4356192810840582 -0.056307591124451765 0.6383200752848005
H 1.1412674133841285 2.1717397205414604 0.5027157204330894
H -1.256280100416273 2.3317155480373835 -0.5074766658121741
H -2.0251896066810784 -0.08716132176107232 -1.2637678526568166
H -1.5010541232908043 -2.26323070694138 0.2654074818175885
H -0.6832312753134812 -1.0407962417849568 1.3909298929973695
