	14
 t=	261.0
C 0.9145346199319262 -1.2866310287829321 -0.23364412885391933
C 1.4108899209393804 0.08981809842464143 0.23158088599880486
C 0.6820137871811406 1.2873520941480516 0.00951809747460207
C -0.683525297229018 1.2752220039396285 -0.03971192931343227
C -1.405082479148626 0.03475930873972805 -0.21347469327584276
C -0.8727978542721099 -1.2130077042570653 0.21947244393249746
H 1.3657634929045306 -2.025496849650519 0.29151662368155906
H 0.6769853976250773 -1.3484596938075437 -1.278162626370075
H 2.1190778871529767 0.0831531673050964 1.1247128573434495
H 1.31790447014539 2.182943382884648 0.04486582742604996
H -1.3454888805605136 2.087066634380146 -0.14563012175777465
H -2.356711187058019 0.22345875334044316 -0.8584176877728807
H -1.4800625255798923 -2.0835433947198934 -0.31350229389536477
H -0.8455807483830228 -1.3518722513342178 1.4472208793890062
