	14
 t=	761.0
C 0.789195852033022 -1.1624808610830624 -0.29989009940352424
C 1.3646477088757838 -0.00514451008497687 0.18171994516242448
C 0.6456487083836924 1.3012698848948674 0.29168754452813256
C -0.6268867539101319 1.2243352831753966 -0.3075227273810526
C -1.3926039045813505 -0.004979655367862801 -0.2771562536607326
C -0.7563550879565034 -1.1532771051852255 0.40060379343096253
H 1.3438676328415393 -1.969937595071865 0.12070522969127156
H 0.4347543950437116 -1.4125176557358052 -1.3551594212641156
H 2.3679864665380466 0.11797138998380144 0.6511409235409547
H 1.238155159696548 2.186069292587251 0.8236734892438251
H -1.136440565706924 2.071160390486547 -0.7757390293572389
H -2.4635634277220664 -0.1115241617668235 -0.7743537136518927
H -1.4008802689512412 -2.0316714965448863 0.0752849246561361
H -0.6654431422427893 -1.2276859376590774 1.360095668005915
