	14
 t=	1261.0
C 0.9448432676134604 -1.2193078411868319 0.041671972641462385
C 1.4250408065978097 0.1144676394032555 0.13020596795367084
C 0.772446030017958 1.3333647439108345 0.08191042935433146
C -0.7412539476661866 1.2439103586525337 -0.20580893699737013
C -1.4375683353789466 0.06234445701930202 -0.2186679577351623
C -0.925142137560476 -1.3312645687876923 0.06943990564598307
H 1.2296823228620761 -2.0361470208812555 0.7278548533704808
H 1.3456308834131407 -1.8222713745999335 -0.8347908662910545
H 2.4758826585578206 0.43462696154830494 0.027889486447601006
H 0.9602574835805601 2.454391763573562 0.4287723023323274
H -1.3304118090859236 2.1027784184027003 -0.17734942760074932
H -2.489824964359494 0.10754961624060531 0.23133468873934585
H -1.51167887037446 -2.1423188865217058 -0.44098403330267655
H -1.1363599794825172 -1.521893000488442 1.242761137187628
