	14
 t=	1061.0
C 0.800228518755948 -1.1831438264100391 -0.09861503666746652
C 1.4112800355729185 0.07834956678587127 0.18929536935945948
C 0.7419781075922146 1.2069373512106674 0.055592102443213436
C -0.7793160618443894 1.163705857367239 -0.04351027555347201
C -1.427168950140909 0.07582344721700379 -0.32595559718132777
C -0.7119777308585175 -1.1351264074473066 0.23325164195058512
H 1.1308578449255249 -2.109896650484629 0.3906714450535276
H 0.6984449051426789 -1.6367503222118254 -1.1471785466951727
H 2.470905624386094 0.253335144004902 0.6458871044957377
H 1.0538572290476647 2.2970296376763475 -0.1706156226469377
H -1.2902455894802631 2.0784761358400536 -0.10171033715673239
H -2.4581124996062766 -0.09054326410520575 -0.8002714906257522
H -1.2085746668412223 -2.0275689745008583 -0.2299660130833115
H -0.8141653048213882 -1.2234572043382201 1.2933603333705106
