	14
 t=	1421.0
C 0.7418346659122829 -1.307707936325014 0.06638968384841651
C 1.4628877141609178 0.13942491002540816 0.057323813099215276
C 0.6303351434819593 1.3626660906800838 0.1180066047764076
C -0.7435542250364641 1.2605390202066151 -0.238121613183369
C -1.4002482562326477 0.05296746704452978 0.03092932508138908
C -0.7371511632243111 -1.2910350685276761 0.046402312244646506
H 1.2406764783970343 -1.7549173298344254 0.9776060504773293
H 1.1851844140273873 -1.9300161512700595 -0.67762051935532
H 2.533457889265603 0.21089815358737632 0.10865886725657611
H 1.0296303347619575 2.3467572981922005 -0.08997768713877964
H -1.0463217425449118 2.2807320526229162 -0.6757711377842185
H -2.374741642704136 0.11049572304012993 -0.30283058630445897
H -0.8599000521608746 -1.8144509898338832 -0.9223010557974857
H -1.1615170903276013 -2.0316157302335176 0.6185531200259763
