	14
 t=	1461.0
C 0.7099409994925145 -1.2144249382142525 0.09213334526131672
C 1.4098714576826874 0.0684261816912016 0.05396295351594729
C 0.6990323051255105 1.3301692263657132 0.08274642652338712
C -0.7780024172971669 1.2789061885577377 -0.21561945172652522
C -1.4021164607289216 0.05758824551864203 0.0550292952416542
C -0.6617395165298099 -1.261159699173864 0.013728204991427708
H 1.1463463460667271 -1.84230009669179 1.0108016795437267
H 1.1422676944355585 -2.0134758253739506 -0.5833258101062748
H 2.4688497506513647 0.18016280336649748 0.2062579790010442
H 0.96725222304724 2.5338706539019253 -0.18682529338981582
H -1.124702694593341 2.1232258334608898 -0.6448118231250511
H -2.429942716887924 -0.17449297289020463 -0.37688102453563394
H -0.7735865510118367 -1.6556596521833058 -0.9728982747975728
H -1.1224733334555705 -2.241282549141692 0.5714897338531951
