	14
 t=	521.0
C 0.9108165677850717 -1.1615469689979454 -0.3311098660828314
C 1.5244290718771736 -0.008350220196225543 0.31425830267403654
C 0.6437494633726251 1.2477740318147175 0.24974188807972697
C -0.6265361767563044 1.2920243025108582 -0.33964589106147136
C -1.58469050114631 -0.0033780408359213453 -0.2224372145523266
C -0.8600947522010363 -1.2167003738854762 0.32083767048908246
H 1.4764569830319607 -2.1231119422227582 -0.005956435773658407
H 0.6089778085545732 -1.1012435441106887 -1.4080881631192184
H 2.5085545592835055 0.23266739046187412 0.6666630641281538
H 1.1922573611710614 2.2042772792360075 0.4700658036438663
H -1.1656639860228901 2.0950804600017543 -0.7120736584651313
H -2.57732973521813 0.09290487009556402 -0.4534254002904222
H -1.493203476788906 -2.0407788628119636 0.236250043216871
H -0.6414272785028207 -1.1437770349643672 1.3059858025257636
