	14
 t=	301.0
C 0.957887530267792 -1.231867562396869 -0.25905620260859824
C 1.4162607992452179 0.012657518830350337 0.24776402477582213
C 0.6460755676034899 1.2772677876866085 -0.015583985023498675
C -0.6394141981805901 1.2718450850946201 -0.028263998859668744
C -1.4145361420339486 0.019218591250381264 -0.21890465415139698
C -0.9308200189514887 -1.1810569532586257 0.2652573040131727
H 1.5347065305876413 -2.101519039617719 0.2725499387223421
H 0.7612786712984664 -1.2238879763653112 -1.332930697682612
H 2.047705811469032 0.13062958423344914 1.0954563769433308
H 1.1036934297957819 2.2122829756604108 0.032268375474844804
H -1.4020783787722624 2.080027731669043 -0.17690964153691502
H -2.1806414107676915 0.18559417524913083 -0.8881795469621223
H -1.3551143630939158 -1.9636263470105089 -0.22319830523556736
H -0.9316981460465488 -1.3206837213525828 1.3255130854993837
