	14
 t=	661.0
C 0.5887589326325207 -1.1877108068410498 -0.2510429687256018
C 1.3992411458356486 0.1560548867726186 0.2178298971380026
C 0.6157874632487357 1.1649874020546769 0.34931976619697364
C -0.6228387153975398 1.102410663842992 -0.3721039638329418
C -1.3356739097158212 0.032891363747160014 -0.22177181170442326
C -0.6344678586737285 -1.097232315839073 0.2771380952831611
H 1.0648861996362 -2.0847576497765155 0.017327109641037383
H 0.711715117454031 -1.033944448794477 -1.3178773200206149
H 2.299905104177631 -0.2526411347782519 0.5880124363488269
H 0.9724614284653254 2.295582965213677 0.5283108334082317
H -0.9903294710333707 2.0428798916230675 -0.822877451326729
H -2.4954033036434717 0.06929171837918768 -0.26367346336344716
H -1.073015520844813 -2.129802071101982 -0.01675118532293867
H -0.6189059967879653 -0.9475217191534746 1.2949802663937993
