	14
 t=	1401.0
C 0.7845094091378326 -1.345535796105606 0.06760936608526388
C 1.4714051966995358 0.18181525821568753 0.06219253897749249
C 0.5999013127234673 1.3678322882814793 0.12129268034531843
C -0.7142763240041 1.251456258228128 -0.24006637297084993
C -1.3967192194338518 0.05408506689198884 0.011162304828774273
C -0.7794960402906294 -1.3049223021487946 0.05511388970378398
H 1.2226901989497516 -1.6809996421512403 0.9345178548780857
H 1.2088746113023727 -1.887511769830532 -0.7806691164156067
H 2.607707905168398 0.2138347863333146 0.06442731369674741
H 1.106634315025759 2.1945741302038915 0.0072429524903926045
H -1.083123739436583 2.2959037160336053 -0.6641792656679334
H -2.4664831173069053 0.228052326049831 -0.26548157292824526
H -0.9685865114562358 -1.8662851905721642 -0.9551041302778168
H -1.2148451170934407 -1.9353303960340822 0.738733829025215
