	14
 t=	841.0
C 0.9044658390999244 -1.249177304787867 -0.29616209282406675
C 1.3751229177001356 0.09523088442027713 0.21292678729152026
C 0.7568959376939168 1.2509378558995636 0.20637593216301267
C -0.785316817736574 1.2975622338241999 -0.24690428354067898
C -1.381221036626229 0.09498558437252373 -0.30824087315717397
C -0.9094949772840549 -1.2725242500548763 0.4323573948626058
H 1.5734296119731088 -2.1520161630133874 -0.04773183509850676
H 0.6786786251958237 -1.4735642510139515 -1.4248528241991076
H 2.401045613371791 0.1199550894329579 0.6313226232395582
H 1.1162159924607613 2.2472736398820907 0.668948865523152
H -1.1618372501565764 2.18059773010846 -0.5592501823636923
H -2.0715678591702815 -0.11915861758472354 -1.1150205319504873
H -1.456786187361925 -2.1652478304977434 0.3173566925411168
H -0.6082943124229521 -1.2218678619536358 1.524963879518267
