	14
 t=	501.0
C 0.9462504952537197 -1.1800456241291182 -0.3442638528077111
C 1.5068151781661976 0.011315202824546023 0.33272212069843915
C 0.6615462208473732 1.24899415409117 0.20259332817598205
C -0.6273734670941598 1.3045270352955987 -0.3050204771059288
C -1.5986533831627514 -0.007372820668884436 -0.22151669832422372
C -0.8884933987002299 -1.2159686887764543 0.32494257462469384
H 1.5415635890940438 -2.09117961010873 -0.00836858123145316
H 0.6285182217307952 -1.0811526325621932 -1.374856012590517
H 2.557307946809292 0.19323985921304454 0.6717599597132277
H 1.2143163009559528 2.0370175653010225 0.48489489544546577
H -1.214389000963515 2.1542583545958363 -0.691995053672869
H -2.5925027728109717 0.07029581536404395 -0.5544480600210642
H -1.4979457408660297 -2.0602290169010873 0.13205988923502587
H -0.6379684051924055 -1.144666797910536 1.4664249012125485
