	14
 t=	101.0
C 0.7625161775386563 -1.200171065191702 -0.1447586724211042
C 1.3974245648350647 -0.005317426108720098 0.16366657266154977
C 0.6620617956597327 1.310597163414716 0.09876013444463727
C -0.615505611508795 1.345467265918185 -0.11397270700854582
C -1.4204722930903333 -0.01133790769749517 -0.1628829095947276
C -0.7888516186975513 -1.2349680633455447 0.12844956256237217
H 1.3206236159735643 -1.9572939695672342 0.6075150097818931
H 0.9461400975158146 -1.503275741326355 -1.214283157127097
H 2.3271811388911106 -0.005012326853696696 0.6243405805584356
H 1.0889293008952896 2.2813783547685413 0.24422240154989006
H -1.307526038132212 2.2602898855833815 -0.20001670631086918
H -2.394555121608593 -0.01463046736325281 -0.5104844287059753
H -1.2291848407893795 -2.043074340068757 -0.2850687151614139
H -0.7179563800336863 -1.4506566926382207 1.0997055309237023
