	14
 t=	1081.0
C 0.7470460501430845 -1.1977836573931564 -0.08344835903126109
C 1.422606964348978 0.11835411974866712 0.18983853982666088
C 0.7301489557823214 1.1968774624279337 0.047909431343584254
C -0.756027164864368 1.171994943092759 -0.045465350268408845
C -1.4487710148638313 0.07215596651710487 -0.3302511695853073
C -0.6662714578184117 -1.1526708453829393 0.22059545593638386
H 1.109121904629903 -1.9959197004333038 0.530056183319524
H 0.7016369450883204 -1.6149166573958236 -1.132230453277899
H 2.5310530341272317 0.1330020868495941 0.6242123604903195
H 1.091421122235021 2.190667207749292 -0.11596870107743268
H -1.3322004093563546 2.1556275552841915 -0.0747094197772875
H -2.5367030368755783 -0.06704552162320075 -0.7093228879636005
H -1.1157960432751175 -2.0685135900904434 -0.29911958129220734
H -0.7906531335979603 -1.2206389475776134 1.1868015729407557
