	14
 t=	61.0
C 0.7562271787386626 -1.2268125871548796 -0.1418052707525376
C 1.3947213902755708 0.05335568118251821 0.16169963633115192
C 0.6752305492221867 1.251796447679186 0.11556594445350399
C -0.6550331010288255 1.3279688476872817 -0.13277402559350493
C -1.395380942185207 0.016040768440942654 -0.15402833090177775
C -0.7583748411427271 -1.2219661370386448 0.1290165713029493
H 1.2583771510949142 -1.8638038385292421 0.5355852583301286
H 0.889758594309637 -1.447978899553342 -1.2071267565150472
H 2.462205206769083 0.006574011851372229 0.5428680023057001
H 1.0954466092428543 2.213080994243661 0.32184126216548814
H -1.2639581039738246 2.1261914717315125 -0.25711537461568823
H -2.4792108870619187 0.11943924767659138 -0.5113988007611765
H -1.2720420114415547 -2.069298399996003 -0.48236106562090125
H -0.8976477491282987 -1.4701986828310911 1.3234712684771273
