	14
 t=	581.0
C 0.7657905652503025 -1.1476290249081376 -0.2807770055963224
C 1.4964815794045803 0.024284784311459265 0.2517618969951048
C 0.6352125454921368 1.2354927053248086 0.3548949092757026
C -0.6652215090084009 1.1640961186260634 -0.39954209206621377
C -1.4479116803306396 0.05787830781894042 -0.2206273898332859
C -0.7691791576016996 -1.1906844281918865 0.2618190354860741
H 1.1548364014258785 -2.111493219691362 -0.13182238470413643
H 0.7293285190793902 -1.1223660302207812 -1.3548653554513574
H 2.516483717957503 0.11731369654693229 0.7052283009569881
H 0.9402534913609294 2.2688559329979268 0.39803507197351246
H -1.03647078728106 2.1992480522688944 -0.7878143720746862
H -2.59015778015045 0.11198849899898142 -0.26059267273109576
H -1.3795411728202023 -2.1625676968858967 0.3268874380842474
H -0.5153955356817721 -1.0089442403822468 1.4915045748094573
