	14
 t=	1321.0
C 0.9370858337594036 -1.3352019921406502 0.041981538621893605
C 1.4374471392714028 0.23951314338160196 0.09777816688412848
C 0.6793021829576283 1.322818003956893 0.1131791459912506
C -0.6776432645370221 1.238262267864759 -0.2349708802008488
C -1.4343198381965137 0.08657841011136234 -0.11803157029713793
C -0.9043913543472121 -1.3598829822043235 0.061486788049403385
H 1.245831937863478 -1.8683134642359607 1.029078302762755
H 1.2311421942577954 -1.791391822725356 -0.8691555279909704
H 2.478464611007236 0.4063921553886284 -0.030189885777248387
H 1.2212485924000855 2.2414440213126983 0.30015623910082817
H -1.436087677586488 2.055999766491322 -0.4087539667506791
H -2.4437611068568246 0.219256611184127 0.0723251315425166
H -1.4574055041337943 -1.925159762840446 -0.6791036046513698
H -1.2857179605229017 -1.6254405279006883 1.0449089751530727
