	14
 t=	701.0
C 0.6323008254807523 -1.1931317219120512 -0.27722468781298915
C 1.3797858094015818 0.12595262124183915 0.20360295691455954
C 0.5928669370781184 1.2205521617085526 0.32345227071731725
C -0.5660727569844938 1.1558258501119913 -0.33948085734707817
C -1.368098265638974 -0.029137763012761102 -0.2342985348747659
C -0.6553097184899644 -1.085577819042851 0.297795074420845
H 1.191271174651707 -2.0251364994810035 0.18835097259189026
H 0.5282196094967646 -1.0988943105214193 -1.345579949733132
H 2.32307788534031 -0.26415568717538307 0.5946125538432269
H 1.0463330916991092 2.0469289613115995 0.6249919353159424
H -1.0809409760600392 2.0337377398771475 -0.8497129212102186
H -2.3975800975848394 0.01162237228100175 -0.39657999941960603
H -1.116287441310427 -2.003412596150864 -0.08232374056442002
H -0.6783342471740896 -1.0164374577217576 1.5775878884329178
