	14
 t=	1501.0
C 0.7666164764262956 -1.1597201230998297 0.14999096791803185
C 1.3524064862520642 0.0514377377703503 0.06079913652138997
C 0.7326167471797538 1.306468139681121 0.008399591440272799
C -0.7609589162882534 1.2628565605714495 -0.16197983820929363
C -1.4253710888603355 0.04796687997760372 0.05172329928301453
C -0.6518008913040069 -1.2485648334159938 -0.01967838752381667
H 0.9379704760054628 -1.721972601826202 0.9889384441637044
H 1.1074385892419611 -1.9352547048053632 -0.5606989240679249
H 2.453739382974686 0.061591912003666704 0.27427606161468493
H 1.041199135486654 2.217637204621223 -0.11732783226030918
H -1.4162030497707456 2.1448085183037593 -0.6505661324295263
H -2.429907099299408 -0.2977656800031394 -0.31571572223972655
H -0.8501125871763292 -1.479028303285197 -1.1710997919010921
H -1.0049806293800216 -2.09115052887703 0.48939084452351705
