14
run_id: 10_1d
C 0.93630056 -1.2155118 -0.2237586
C 1.40162862 0.05872462 0.21631649
C 0.69784038 1.23684368 0.08488942
C -0.7449163 1.33232738 -0.0571822
C -1.3871101 0.05712207 -0.2440594
C -0.9026877 -1.2245899 0.23226778
H 1.47227790 -2.2286826 0.22187884
H 0.61511346 -1.3344990 -1.2189428
H 2.24751722 -0.1526581 0.78238948
H 1.23827891 2.19101923 -0.0552240
H -1.2143941 2.25293010 0.10459329
H -2.1469509 -0.1783666 -1.0105399
H -1.4224058 -2.1202519 -0.2720954
H -0.8020613 -1.3457343 1.34697071
